Circuit: * C:\Users\Lauren\Documents\due_spring23\ece477\CribCaptain\ltspice_sim\SinetoSquareWave\SinetoSquareWave.asc

Direct Newton iteration for .op point succeeded.

Date: Mon Feb  6 01:37:12 2023
Total elapsed time: 0.730 seconds.

tnom = 27
temp = 27
method = modified trap
totiter = 70335
traniter = 70321
tranpoints = 15615
accept = 11474
rejected = 4141
matrix size = 19
fillins = 19
solver = Normal
Avg thread counts: 1.0/1.0/1.0/1.0
Matrix Compiler1: 1.71 KB object code size  0.9/0.7/[0.3]
Matrix Compiler2: 1.73 KB object code size  0.4/0.5/[0.3]

