Circuit: * C:\Users\clair\OneDrive\Documents\LTspiceXVII\SinetoSquareWave.asc

Direct Newton iteration for .op point succeeded.

Date: Thu Feb 02 13:35:28 2023
Total elapsed time: 0.276 seconds.

tnom = 27
temp = 27
method = modified trap
totiter = 70830
traniter = 70816
tranpoints = 15912
accept = 11679
rejected = 4233
matrix size = 19
fillins = 19
solver = Normal
Matrix Compiler1: 1.69 KB object code size  0.3/0.2/[0.1]
Matrix Compiler2: 1.73 KB object code size  0.2/0.3/[0.1]

